82

H 0.081754 0.540168 12.049416
N 0.623000 -0.083000 11.623001
C 1.453000 -1.055000 12.324001
C 2.701000 -0.268000 12.768001
O 3.532000 0.124000 11.938001
C 1.840000 -2.231000 11.371001
C 2.822000 -3.197000 12.038001
C 0.565000 -2.971000 10.974001
H 0.586000 -0.027000 10.570001
H 0.981000 -1.349000 13.135001
H 2.307000 -1.834000 10.586001
H 3.637000 -2.695000 12.322001
H 2.387000 -3.610000 12.836001
H 3.077000 -3.910000 11.387001
H 0.197000 -3.442000 11.774001
H -0.103000 -2.312000 10.632001
H 0.781000 -3.636000 10.260001
H 2.825976 -0.032983 13.782741
H 8.914138 3.196438 8.297333
N 8.034000 3.055000 8.548000
C 7.289000 1.913000 8.062000
C 6.355000 2.111000 6.897000
O 5.549000 1.237000 6.635000
H 7.641000 3.769000 9.191001
H 7.964000 1.155000 7.824000
H 6.750000 1.507000 8.857000
H 6.373865 2.992905 6.354653
H -5.410254 -2.589716 7.012432
N -5.210000 -2.902000 6.154000
C -5.998000 -2.560000 4.981000
C -7.330000 -3.299000 4.943000
O -8.354000 -2.729000 4.586000
C -5.173000 -2.842000 3.703000
C -3.865000 -2.052000 3.565000
C -3.894000 -0.516000 3.616000
O -4.920000 0.145000 3.705000
O -2.832000 0.065000 3.554000
H -4.365000 -3.521000 6.115000
H -6.170000 -1.561000 4.966000
H -4.940000 -3.803000 3.708000
H -5.741000 -2.613000 2.928000
H -3.245000 -2.355000 4.302000
H -3.445000 -2.304000 2.682000
H -7.343363 -4.288589 5.250331
C 0.491000 0.673000 8.014000
N 1.553000 0.200000 8.716000
C 2.827000 0.395000 8.291000
N 3.047000 1.066000 7.159000
C 2.046000 1.541000 6.430000
N 2.365000 2.224000 5.316000
C 1.397000 2.751000 4.525000
C 0.018000 2.566000 4.847000
N -0.293000 1.864000 5.993000
C 0.688000 1.364000 6.803000
O -0.755000 0.609000 8.608000
N 3.867000 0.248000 9.105001
C -1.143000 3.122000 3.979000
O -2.401000 2.633000 4.435000
O -2.580000 5.078000 4.314000
O -0.052000 4.446000 1.622000
C -1.283000 4.645000 3.828000
C -1.077000 5.164000 2.355000
H 3.977000 1.326000 6.845000
H 1.717000 3.295000 3.640000
H -0.968000 2.695000 2.981000
H -2.265000 2.318000 5.345000
H -2.490000 6.025000 4.489000
H -0.490000 3.739000 1.134000
H -0.502000 5.123000 4.441000
H 3.671000 -0.280000 9.946001
H 4.793000 0.120000 8.721000
H -0.772000 6.214000 2.376000
H -2.045000 5.095000 1.845000
O -3.994000 7.295000 2.908000
H -3.926000 6.429000 2.413000
H -3.138000 7.533000 3.367000
O -5.177000 3.014000 3.851000
H -5.088000 2.019000 3.800000
H -4.764000 3.468000 3.062000
O 2.603000 5.295000 2.116000
H 3.563000 5.512000 1.941000
H 1.985000 5.946000 1.676000

