82

H             0.0817540000000           0.5401680000000          12.0494160000000
N             0.6230000000000          -0.0830000000000          11.6230010000000
C             1.4530000000000          -1.0550000000000          12.3240010000000
C             2.7010000000000          -0.2680000000000          12.7680010000000
O             3.5320000000000           0.1240000000000          11.9380010000000
C             1.8400000000000          -2.2310000000000          11.3710010000000
C             2.8220000000000          -3.1970000000000          12.0380010000000
C             0.5650000000000          -2.9710000000000          10.9740010000000
H             0.5860000000000          -0.0270000000000          10.5700010000000
H             0.9810000000000          -1.3490000000000          13.1350010000000
H             2.3070000000000          -1.8340000000000          10.5860010000000
H             3.6370000000000          -2.6950000000000          12.3220010000000
H             2.3870000000000          -3.6100000000000          12.8360010000000
H             3.0770000000000          -3.9100000000000          11.3870010000000
H             0.1970000000000          -3.4420000000000          11.7740010000000
H            -0.1030000000000          -2.3120000000000          10.6320010000000
H             0.7810000000000          -3.6360000000000          10.2600010000000
H             2.8259760000000          -0.0329830000000          13.7827410000000
H             8.9141380000000           3.1964380000000           8.2973330000000
N             8.0340000000000           3.0550000000000           8.5480000000000
C             7.2890000000000           1.9130000000000           8.0620000000000
C             6.3550000000000           2.1110000000000           6.8970000000000
O             5.5490000000000           1.2370000000000           6.6350000000000
H             7.6410000000000           3.7690000000000           9.1910010000000
H             7.9640000000000           1.1550000000000           7.8240000000000
H             6.7500000000000           1.5070000000000           8.8570000000000
H             6.3738650000000           2.9929050000000           6.3546530000000
H            -5.4102540000000          -2.5897160000000           7.0124320000000
N            -5.2100000000000          -2.9020000000000           6.1540000000000
C            -5.9980000000000          -2.5600000000000           4.9810000000000
C            -7.3300000000000          -3.2990000000000           4.9430000000000
O            -8.3540000000000          -2.7290000000000           4.5860000000000
C            -5.1730000000000          -2.8420000000000           3.7030000000000
C            -3.8650000000000          -2.0520000000000           3.5650000000000
C            -3.8940000000000          -0.5160000000000           3.6160000000000
O            -4.9200000000000           0.1450000000000           3.7050000000000
O            -2.8320000000000           0.0650000000000           3.5540000000000
H            -4.3650000000000          -3.5210000000000           6.1150000000000
H            -6.1700000000000          -1.5610000000000           4.9660000000000
H            -4.9400000000000          -3.8030000000000           3.7080000000000
H            -5.7410000000000          -2.6130000000000           2.9280000000000
H            -3.2450000000000          -2.3550000000000           4.3020000000000
H            -3.4450000000000          -2.3040000000000           2.6820000000000
H            -7.3433630000000          -4.2885890000000           5.2503310000000
C             0.4910000000000           0.6730000000000           8.0140000000000
N             1.5530000000000           0.2000000000000           8.7160000000000
C             2.8270000000000           0.3950000000000           8.2910000000000
N             3.0470000000000           1.0660000000000           7.1590000000000
C             2.0460000000000           1.5410000000000           6.4300000000000
N             2.3650000000000           2.2240000000000           5.3160000000000
C             1.3970000000000           2.7510000000000           4.5250000000000
C             0.0180000000000           2.5660000000000           4.8470000000000
N            -0.2930000000000           1.8640000000000           5.9930000000000
C             0.6880000000000           1.3640000000000           6.8030000000000
O            -0.7550000000000           0.6090000000000           8.6080000000000
N             3.8670000000000           0.2480000000000           9.1050010000000
C            -1.1430000000000           3.1220000000000           3.9790000000000
O            -2.4010000000000           2.6330000000000           4.4350000000000
O            -2.5800000000000           5.0780000000000           4.3140000000000
O            -0.0520000000000           4.4460000000000           1.6220000000000
C            -1.2830000000000           4.6450000000000           3.8280000000000
C            -1.0770000000000           5.1640000000000           2.3550000000000
H             3.9770000000000           1.3260000000000           6.8450000000000
H             1.7170000000000           3.2950000000000           3.6400000000000
H            -0.9680000000000           2.6950000000000           2.9810000000000
H            -2.2650000000000           2.3180000000000           5.3450000000000
H            -2.4900000000000           6.0250000000000           4.4890000000000
H            -0.4900000000000           3.7390000000000           1.1340000000000
H            -0.5020000000000           5.1230000000000           4.4410000000000
H             3.6710000000000          -0.2800000000000           9.9460010000000
H             4.7930000000000           0.1200000000000           8.7210000000000
H            -0.7720000000000           6.2140000000000           2.3760000000000
H            -2.0450000000000           5.0950000000000           1.8450000000000
O            -3.9940000000000           7.2950000000000           2.9080000000000
H            -3.9260000000000           6.4290000000000           2.4130000000000
H            -3.1380000000000           7.5330000000000           3.3670000000000
O            -5.1770000000000           3.0140000000000           3.8510000000000
H            -5.0880000000000           2.0190000000000           3.8000000000000
H            -4.7640000000000           3.4680000000000           3.0620000000000
O             2.6030000000000           5.2950000000000           2.1160000000000
H             3.5630000000000           5.5120000000000           1.9410000000000
H             1.9850000000000           5.9460000000000           1.6760000000000
