82
gau_mlatom
H             0.0817538797290           0.5401682716500          12.0494157850280
N             0.6230000342360          -0.0830000045610          11.6230006387220
C             1.4530000798470          -1.0550000579760          12.3240006772440
C             2.7010001484290          -0.2680000147270          12.7680007016430
O             3.5320001940950           0.1240000068140          11.9380006560320
C             1.8400001011140          -2.2310001226010          11.3710006248730
C             2.8220001550780          -3.1970001756860          12.0380006615270
C             0.5650000310480          -2.9710001632660          10.9740006030570
H             0.5860000322030          -0.0270000014840          10.5700005808560
H             0.9810000539090          -1.3490000741320          13.1350007218110
H             2.3070001267770          -1.8340001007840          10.5860005817350
H             3.6370001998650          -2.6950001480990          12.3220006771340
H             2.3870001311730          -3.6100001983810          12.8360007053800
H             3.0770001690910          -3.9100002148670          11.3870006257520
H             0.1970000108260          -3.4420001891490          11.7740006470190
H            -0.1030000056600          -2.3120001270520          10.6320005842630
H             0.7810000429180          -3.6360001998100          10.2600005638200
H             2.8259759586990          -0.0329826105080          13.7827414001290
H             8.9141381080080           3.1964383609100           8.2973327811070
N             8.0340004414940           3.0550001678820           8.5480004697400
C             7.2890004005540           1.9130001051260           8.0620004430330
C             6.3550003492280           2.1110001160060           6.8970003790120
O             5.5490003049360           1.2370000679770           6.6350003646150
H             7.6410004198980           3.7690002071190           9.1910005050750
H             7.9640004376470           1.1550000634710           7.8240004299540
H             6.7500003709340           1.5070000828150           8.8570004867210
H             6.3738646224760           2.9929048903680           6.3546525231220
H            -5.4102543615830          -2.5897158322940           7.0124321433900
N            -5.2100002863060          -2.9020001594740           6.1540003381820
C            -5.9980003296090          -2.5600001406810           4.9810002737220
C            -7.3300004028070          -3.2990001812910           4.9430002716340
O            -8.3540004590800          -2.7290001499670           4.5860002520150
C            -5.1730002842730          -2.8420001561770           3.7030002034920
C            -3.8650002123940          -2.0520001127640           3.5650001959080
C            -3.8940002139880          -0.5160000283560           3.6160001987110
O            -4.9200002703700           0.1450000079680           3.7050002036020
O            -2.8320001556270           0.0650000035720           3.5540001953040
H            -4.3650002398710          -3.5210001934910           6.1150003360390
H            -6.1700003390610          -1.5610000857820           4.9660002728980
H            -4.9400002714690          -3.8030002089870           3.7080002037660
H            -5.7410003154870          -2.6130001435930           2.9280001609030
H            -3.2450001783230          -2.3550001294150           4.3020002364090
H            -3.4450001893140          -2.3040001266120           2.6820001473840
H            -7.3433625963580          -4.2885885154450           5.2503307233050
C             0.4910000269820           0.6730000369830           8.0140004403950
N             1.5530000853430           0.2000000109910           8.7160004789720
C             2.8270001553530           0.3950000217060           8.2910004556170
N             3.0470001674430           1.0660000585800           7.1590003934100
C             2.0460001124340           1.5410000846830           6.4300003533490
N             2.3650001299640           2.2240001222160           5.3160002921310
C             1.3970000767690           2.7510001511760           4.5250002486630
C             0.0180000009890           2.5660001410100           4.8470002663580
N            -0.2930000161020           1.8640001024330           5.9930003293350
C             0.6880000378080           1.3640000749560           6.8030003738470
O            -0.7550000414900           0.6090000334660           8.6080004730370
N             3.8670002125040           0.2480000136280           9.1050005003490
C            -1.1430000628120           3.1220001715640           3.9790002186590
O            -2.4010001319430           2.6330001446920           4.4350002437180
O            -2.5800001417790           5.0780002790520           4.3140002370680
O            -0.0520000028570           4.4460002443220           1.6220000891340
C            -1.2830000705050           4.6450002552580           3.8280002103610
C            -1.0770000591850           5.1640002837790           2.3550001294150
H             3.9770002185490           1.3260000728680           6.8450003761550
H             1.7170000943550           3.2950001810710           3.6400002000300
H            -0.9680000531950           2.6950001480990           2.9810001638150
H            -2.2650001244690           2.3180001273820           5.3450002937250
H            -2.4900001368340           6.0250003310940           4.4890002466850
H            -0.4900000269270           3.7390002054700           1.1340000623170
H            -0.5020000275870           5.1230002815260           4.4410002440470
H             3.6710002017330          -0.2800000153870           9.9460005465650
H             4.7930002633910           0.1200000065940           8.7210004792470
H            -0.7720000424240           6.2140003414790           2.3760001305690
H            -2.0450001123800           5.0950002799870           1.8450001013890
O            -3.9940002194830           7.2950004008840           2.9080001598040
H            -3.9260002157460           6.4290003532940           2.4130001326020
H            -3.1380001724430           7.5330004139630           3.3670001850280
O            -5.1770002844930           3.0140001656290           3.8510002116250
H            -5.0880002796020           2.0190001109510           3.8000002088220
H            -4.7640002617970           3.4680001905780           3.0620001682670
O             2.6030001430430           5.2950002909770           2.1160001162810
H             3.5630001957980           5.5120003029020           1.9410001066640
H             1.9850001090820           5.9460003267520           1.6760000921020
