37

N 63.250371 38.751857 -0.212253
C 63.002820 39.883553 -1.127406
C 62.665892 39.412374 -2.548085
C 63.691712 38.400486 -3.094328
O 64.976034 39.017014 -3.095033
C 63.755424 37.218392 -2.113506
C 64.152208 37.696257 -0.713126
C 63.774887 39.202728 1.093524
C 62.754464 40.019669 1.894835
C 63.517253 41.100530 2.677521
H 63.051460 41.326620 3.666568
C 63.427415 38.052663 -4.457087
C 63.212148 39.071891 -5.406254
C 62.859735 38.774291 -6.724320
C 62.732470 37.444955 -7.126764
H 62.387880 37.216869 -8.173438
C 62.986705 36.414970 -6.205457
C 63.346263 36.715023 -4.882015
H 62.212780 40.560975 -0.727196
H 63.859900 40.595220 -1.131142
H 61.630039 39.002335 -2.599033
H 62.550723 40.277636 -3.240821
H 65.609557 38.392606 -3.429687
H 62.800639 36.642011 -2.098018
H 64.432091 36.411915 -2.481024
H 65.215754 38.027145 -0.684804
H 64.214109 36.843153 0.002213
H 64.156416 38.341721 1.690030
H 64.724787 39.770654 0.964565
H 61.945703 40.443404 1.253417
H 62.110308 39.384631 2.548565
H 64.591335 40.827266 2.793441
H 63.631371 42.027166 2.069218
H 63.321339 40.128081 -5.109824
H 62.682234 39.588018 -7.446166
H 62.902734 35.361968 -6.522699
H 63.565455 35.897711 -4.173378

