37

N            63.2603010000000          38.7637080000000          -0.2136090000000
C            63.0129570000000          39.8917230000000          -1.1322310000000
C            62.6732960000000          39.4159770000000          -2.5503270000000
C            63.6956810000000          38.3998140000000          -3.0946030000000
O            64.9816650000000          39.0134200000000          -3.1024550000000
C            63.7603910000000          37.2217360000000          -2.1086280000000
C            64.1607940000000          37.7055830000000          -0.7113750000000
C            63.7833300000000          39.2182480000000           1.0912820000000
C            62.7599430000000          40.0323840000000           1.8910340000000
C            63.5194080000000          41.1114670000000           2.6795520000000
H            63.0516830000000          41.3326760000000           3.6685770000000
C            63.4263020000000          38.0459490000000          -4.4545850000000
C            63.2113550000000          39.0626490000000          -5.4061680000000
C            62.8541000000000          38.7624530000000          -6.7219960000000
C            62.7210020000000          37.4326310000000          -7.1200170000000
H            62.3719420000000          37.2032750000000          -8.1649340000000
C            62.9749310000000          36.4041830000000          -6.1963770000000
C            63.3399790000000          36.7071880000000          -4.8747770000000
H            62.2240290000000          40.5714520000000          -0.7337500000000
H            63.8707200000000          40.6024620000000          -1.1394980000000
H            61.6368340000000          39.0069540000000          -2.5981390000000
H            62.5577100000000          40.2788850000000          -3.2459340000000
H            65.6122200000000          38.3863640000000          -3.4374770000000
H            62.8050950000000          36.6464230000000          -2.0880010000000
H            64.4350250000000          36.4126040000000          -2.4742050000000
H            65.2249550000000          38.0353780000000          -0.6871060000000
H            64.2232290000000          36.8555060000000           0.0076840000000
H            64.1649120000000          38.3581580000000           1.6891040000000
H            64.7330170000000          39.7868840000000           0.9630860000000
H            61.9513590000000          40.4559960000000           1.2493520000000
H            62.1156460000000          39.3947200000000           2.5420710000000
H            64.5932480000000          40.8381480000000           2.7973150000000
H            63.6339090000000          42.0405740000000           2.0750400000000
H            63.3249210000000          40.1193580000000          -5.1131360000000
H            62.6770350000000          39.5748020000000          -7.4455410000000
H            62.8864300000000          35.3504560000000          -6.5103850000000
H            63.5589640000000          35.8914940000000          -4.1642810000000
