82

H 0.078834 0.530298 12.033567
N 0.633172 -0.084908 11.575820
C 1.438314 -1.076429 12.226853
C 2.706799 -0.373885 12.720648
O 3.591868 -0.082190 11.933415
C 1.786290 -2.259506 11.312594
C 2.742039 -3.219418 12.034355
C 0.522005 -2.968789 10.836335
H 0.676569 0.027534 10.569938
H 0.882288 -1.476099 13.091020
H 2.307698 -1.864045 10.432748
H 3.708037 -2.751531 12.244981
H 2.308941 -3.553117 12.987198
H 2.930287 -4.104357 11.418952
H -0.063049 -3.340217 11.687533
H -0.107953 -2.275274 10.274512
H 0.770278 -3.815571 10.189889
H 2.839455 -0.115356 13.750756
H 8.907904 3.179943 8.314474
N 8.030084 3.011477 8.604217
C 7.229746 1.908925 8.223977
C 6.288072 2.138116 7.060120
O 5.446100 1.286845 6.849919
H 7.681880 3.654041 9.298710
H 7.852599 1.044229 7.951647
H 6.619708 1.557408 9.064931
H 6.338918 3.007587 6.441790
H -5.406826 -2.599225 7.016056
N -5.192498 -2.932732 6.157878
C -5.898019 -2.492923 4.978294
C -7.241282 -3.236176 4.900388
O -8.271152 -2.671377 4.578252
C -5.079697 -2.621733 3.686449
C -3.722853 -1.905169 3.690737
C -3.774369 -0.361966 3.625697
O -4.866299 0.171815 3.927049
O -2.694734 0.224321 3.341489
H -4.308154 -3.415709 6.089849
H -6.138496 -1.428735 5.052946
H -4.938828 -3.682963 3.438840
H -5.696090 -2.186428 2.897081
H -3.146911 -2.153497 4.590022
H -3.132415 -2.262648 2.841291
H -7.291416 -4.262791 5.203605
C 0.035190 0.886209 7.555131
N 1.031469 0.530231 8.459386
C 2.285928 0.618673 8.118291
N 2.713888 1.036196 6.891655
C 1.826125 1.538029 5.968744
N 2.329837 2.010515 4.825346
C 1.420948 2.497356 3.993340
C 0.044501 2.542308 4.289658
N -0.432532 2.037260 5.420293
C 0.467463 1.525657 6.269067
O -1.136390 0.670589 7.774793
N 3.267761 0.209235 8.971418
C -0.890077 3.183907 3.265028
O -2.230827 2.974917 3.525488
O -1.338543 5.465137 4.024815
O 0.153855 4.556286 0.791502
C -0.556154 4.689665 3.123860
C -0.712382 5.224204 1.692709
H 3.699963 1.061737 6.667127
H 1.794791 2.888546 3.048879
H -0.585095 2.778422 2.288251
H -2.426869 1.993654 3.511847
H -0.961890 6.355252 3.986464
H -0.367563 3.984581 0.214772
H 0.508669 4.802657 3.375331
H 3.028489 0.178876 9.958689
H 4.214025 0.500651 8.773983
H -0.435462 6.288681 1.692459
H -1.756713 5.185609 1.385410
O -3.780871 6.159181 2.422171
H -3.152939 5.853340 3.105213
H -3.886354 5.309560 1.935705
O -5.118568 2.847739 3.358072
H -4.947747 1.899614 3.536687
H -4.277065 3.157403 2.985213
O 4.195887 4.918318 1.400327
H 5.043041 5.450330 1.428164
H 3.566613 5.604126 1.143313

